PHYSICAL_PROBLEM= EULER
MATH_PROBLEM= DIRECT
REGIME_TYPE= COMPRESSIBLE
AXISYMMETRIC= NO
RESTART_SOL= NO
SYSTEM_MEASUREMENTS= SI
MACH_NUMBER= 0.850000
AOA= 0.0
SIDESLIP_ANGLE= 0.000000
% INIT_OPTION= REYNOLDS
FREESTREAM_OPTION= TEMPERATURE_FS
FREESTREAM_PRESSURE= 21662.7
FREESTREAM_TEMPERATURE= 216.650
% REYNOLDS_NUMBER= 6.500000e+06
FREESTREAM_VELOCITY= (1.0, 0.0, 0.0)
REF_ORIGIN_MOMENT_X= 0.00
REF_ORIGIN_MOMENT_Y= 0.00
REF_ORIGIN_MOMENT_Z= 0.00
% REF_LENGTH= 1.00
% REF_AREA= 1.00
REF_DIMENSIONALIZATION= FREESTREAM_PRESS_EQ_ONE
VISCOSITY_MODEL= SUTHERLAND

% ============================== Unsteady Simulation with timesteps ========================== %

UNSTEADY_SIMULATION= DUAL_TIME_STEPPING-2ND_ORDER
UNST_TIMESTEP= 0.13867375
UNST_TIME= 5.54695
UNST_INT_ITER= 110
GRID_MOVEMENT= YES
GRID_MOVEMENT_KIND= ( EXTERNAL, EXTERNAL )
MACH_MOTION= 0.85
MARKER_MOVING= ( 3, 4 )
MARKER_EULER= ( 3, 4 )

% ============================================================================================ %

MARKER_HEATFLUX= ( NONE )
MARKER_ISOTHERMAL= ( NONE )
MARKER_FAR= ( 1 )
MARKER_SYM= ( 2 )
INLET_TYPE= TOTAL_CONDITIONS
MARKER_INLET= (  NONE )
MARKER_OUTLET= (  NONE )
MARKER_PLOTTING= ( 3, 4 )
MARKER_MONITORING= ( 3, 4 )
NUM_METHOD_GRAD= GREEN_GAUSS
CFL_NUMBER= 10.0
CFL_ADAPT= NO
CFL_ADAPT_PARAM= ( 1.5, 0.5, 1.25, 50.0 )
MAX_DELTA_TIME= 1E6
RK_ALPHA_COEFF= ( 0.66667, 0.66667, 1.000000 )
MUSCL_FLOW= YES
VENKAT_LIMITER_COEFF= 0.05
ADJ_SHARP_LIMITER_COEFF= 3.0
LIMITER_ITER= 999999
JST_SENSOR_COEFF= ( 0.5, 0.02 )
LINEAR_SOLVER= FGMRES
LINEAR_SOLVER_PREC= ILU
LINEAR_SOLVER_ERROR= 1E-6
LINEAR_SOLVER_ITER= 10
MGLEVEL= 2
MGCYCLE= V_CYCLE
MG_PRE_SMOOTH= ( 1, 2, 3, 3 )
MG_POST_SMOOTH= ( 0, 0, 0, 0 )
MG_CORRECTION_SMOOTH= ( 0, 0, 0, 0 )
MG_DAMP_RESTRICTION= 0.75
MG_DAMP_PROLONGATION= 0.75
CONV_NUM_METHOD_FLOW= ROE
ROE_LOW_DISSIPATION= FD
LOW_MACH_CORR= NO
LOW_MACH_PREC= NO
MAX_ROE_TURKEL_PREC= 5.0
ENTROPY_FIX_COEFF= 0.001
TIME_DISCRE_FLOW= EULER_IMPLICIT
RELAXATION_FACTOR_FLOW= 0.95
DV_KIND= SURFACE_FILE
DV_MARKER= ( ( 3, 4 ) )
DV_PARAM= ( 1.0, 0.5) 
DV_VALUE= 0
DEFORM_LINEAR_SOLVER_PREC= ILU
DEFORM_LINEAR_ITER= 500
DEFORM_NONLINEAR_ITER= 3
DEFORM_LINEAR_SOLVER_ERROR= 1E-14

% set external iterations (corresponding to surface_positions_000* files)
EXT_ITER= 40

CONV_CRITERIA= RESIDUAL
RESIDUAL_REDUCTION= 6
RESIDUAL_MINVAL= -8
STARTCONV_ITER= 10
CAUCHY_ELEMS= 100
CAUCHY_EPS= 1E-10
CAUCHY_FUNC_FLOW= DRAG

MESH_FILENAME= aeroelastic.su2

MESH_FORMAT= SU2
MESH_OUT_FILENAME= aeroelastic_Iterative.su2
SOLUTION_FLOW_FILENAME= restart_flow_aeroelastic_Iterative.dat
OUTPUT_FORMAT= TECPLOT
CONV_FILENAME= history_aeroelastic_Iterative
BREAKDOWN_FILENAME= forces_breakdown_aeroelastic_Iterative.dat
RESTART_FLOW_FILENAME= restart_flow_aeroelastic_Iterative.dat
VOLUME_FLOW_FILENAME= flow_aeroelastic_Iterative
SURFACE_FLOW_FILENAME= surface_flow_aeroelastic_Iterative
WRT_SOL_FREQ= 1000.0
WRT_CON_FREQ= 1
REORIENT_ELEMENTS= YES
DV_VALUE_NEW= 0
DV_VALUE_OLD= 0
OPT_ITERATIONS= 100
OPT_ACCURACY= 1e-10
OPT_RELAX_FACTOR= 1.0
OPT_GRADIENT_FACTOR= 1.0
OPT_BOUND_UPPER= 10000000000.0
OPT_BOUND_LOWER= -10000000000.0
OPT_COMBINE_OBJECTIVE= NO
OPT_CONSTRAINT= NONE
VALUE_OBJFUNC_FILENAME= of_eval.dat
GRAD_OBJFUNC_FILENAME= of_grad.dat
TARGET_CL= 0.0
MULTIPOINT_WEIGHT= (1.0)
MULTIPOINT_MACH_NUMBER= (0.294118)
MULTIPOINT_AOA= (0.0)
MULTIPOINT_SIDESLIP_ANGLE= (0.000000)
MULTIPOINT_REYNOLDS_NUMBER= (6.500000e+06)
MULTIPOINT_TARGET_CL= (0.0)
MULTIPOINT_FREESTREAM_PRESSURE= (101325.0)
MULTIPOINT_FREESTREAM_TEMPERATURE= (288.15)
OBJECTIVE_FUNCTION= DRAG
DEFINITION_DV= ( 1 , 1.0 | WING  | 0.0 , 0.05  )
NUMBER_PART= 2
